         MACRO                                                          00010001
         DSTACK &NAME=DSTACK,&SIZE=1000F                                00020001
&NAME    DSECT                                                          00030001
H&NAME   DS    XL8                                                      00040001
SA&NAME  DS    18F                    STACK SAVE AREA                   00050001
ST&NAME  DS    &SIZE                                                    00060001
         MEND                                                           00070001
